Dalvik/2.1.0 (Linux; U; Android 5.1.1; SM-A505FN Build/NRD90M) Y7522E) 2.50.153.41 ["\'[FBAN/FB4A;FBAV/46.183.124.129;FBBV/4940703;[FBAN/FB4A;FBAV/80.90.83.191;FBBV/29142836;FBDM/{density=1.5,width=540,height=960};FBLC/en_US;FBCR/Airtel;FBMF/samsung;FBBD/samsung;FBPN/com.facebook.katana;FBDV/SM-J200F;FBSV/5.1.1;FBOP/19;FBCA/armeabi-v7a:armeabi;]\',\'[FBAN/FB4A;FBAV/45.7.210.199;FBBV/3215142;[FBAN/FB4A;FBAV/45.7.210.200;FBBV/303076505;FBDM/{density=3.0,width=1080,height=2060};FBLC/en_US;FBRV/0;FBCR/TELEMACH;FBMF/HUAWEI;FBBD/HUAWEI;FBPN/com.facebook.katana;FBDV/ANE-LX1;FBSV/9;FBOP/1;FBCA/arm64-v8a:;]\',\'[FBAN/FB4A;FBAV/45.172.108.53;FBBV/5424645;[FBAN/FB4A;FBAV/45.227.92.213;FBBV/303076505;FBDM/{density=3.0,width=1080,height=2060};FBLC/en_US;FBRV/0;FBCR/TELEMACH;FBMF/HUAWEI;FBBD/HUAWEI;FBPN/com.facebook.katana;FBDV/ANE-LX1;FBSV/9;FBOP/1;FBCA/arm64-v8a:;]\',\'[FBAN/FB4A;FBAV/37.252.66.125;FBPN/com.facebook.katana;FBLC/en_US;FBBV/294689378;FBCR/TIGO;FBMF/samsung;FBBD/samsung;FBDV/Galaxy Tab A 10.5;FBSV/5.0;FBCA/armeabi-v7a:armeabi;FBDM/{density=4.0,width=562,height=1130};FB_FW/1;]\',\'[FBAN/FB4A;FBAV/37.186.125.202;FBBV/176515222;FBDM/{density=2.625,width=1080,height=2042};FBLC/en_US;FBRV/177156964;FBCR/Verizon ;FBMF/samsung;FBBD/samsung;FBPN/com.facebook.katana;FBDV/SM-G973U;FBSV/9;FBOP/1;FBCA/arm64-v8a:;]\',\'[FBAN/FB4A;FBAV/37.252.66.125;FBBV/355890887;FBRV/0;FBPN/com.facebook.katana;FBLC/en_US;FBMF/samsung;FBBD/samsung;FBDV/SM-J330F;FBSV/7.0;FBCA/armeabi-v7a:armeabi;FBDM/{density=2.0,width=720,height=1440};FB_FW/1;]\',\'[FBAN/FB4A;FBAV/37.186.125.202;FBBV/2992822;[FBAN/FB4A;FBAV/37.186.125.202;FBBV/206636690;FBDM/{density=2.0,width=720,height=1184};FBLC/en_US;FBRV/208541728;FBCR/TELCEL;FBMF/ZENEK;FBBD/ZENEK;FBPN/com.facebook.katana;FBDV/Libelula Z6001;FBSV/6.0;FBOP/1;FBCA/armeabi-v7a:armeabi;]
